REGRIDDING_COORDINATE_MODE = "SIGMA" 
ALE_COORDINATE_CONFIG = "FNC1:0.0005,1,4.5,0.000001"