! HyCOM-like coordinate -- regrid to a target density, bounded by a minimum interface depth
REGRIDDING_COORDINATE_MODE = "HYCOM1"

! use high-order scheme at boundary cells for remapping,
! instead of just piecewise-constant
BOUNDARY_EXTRAPOLATION = True
 
! read target densities from file, set minimum interface depth
! from profile: minimum dz=1.082, 4000m total thickness, profile is dz^4.5
ALE_COORDINATE_CONFIG = "HYBRID:hycom1_75_800m.nc,sigma2,FNC1:1.08,4000,4.5,.01"

! artificial compressibility to make homogeneous regions appear stratified
REGRID_COMPRESSIBILITY_FRACTION = 0.01
