REGRIDDING_COORDINATE_MODE = "ZSTAR" ! default = "LAYER"
ALE_COORDINATE_CONFIG = "FNC1:2,4000,4.5,.01"